
     RDKit          3D

 20 21  0  0  0  0  0  0  0  0999 V2000
    3.8330  -34.5990  -36.3350 C   0  0  0  0  0  0  0  0  0  0  0  0
    9.9240  -34.3900  -34.5440 O   0  0  0  0  0  0  0  0  0  0  0  0
    8.0140  -34.2910  -33.8180 O   0  0  0  0  0  0  0  0  0  0  0  0
    5.8410  -34.6950  -34.8860 C   0  0  0  0  0  0  0  0  0  0  0  0
    6.7710  -31.9970  -32.9080 C   0  0  0  0  0  0  0  0  0  0  0  0
    5.3780  -32.7800  -32.6880 C   0  0  0  0  0  0  0  0  0  0  0  0
    8.9470  -32.5220  -31.3470 C   0  0  0  0  0  0  0  0  0  0  0  0
    6.6660  -31.7290  -30.9420 O   0  0  0  0  0  0  0  0  0  0  0  0
    3.2160  -33.6490  -35.5080 C   0  0  0  0  0  0  0  0  0  0  0  0
    9.9950  -31.4290  -29.1670 C   0  0  0  0  0  0  0  0  0  0  0  0
    9.0650  -33.9390  -33.6440 C   0  0  0  0  0  0  0  0  0  0  0  0
   11.3300  -33.0700  -30.5170 S   0  0  0  0  0  0  0  0  0  0  0  0
    7.5490  -32.0210  -31.6030 C   0  0  0  0  0  0  0  0  0  0  0  0
    9.6660  -33.3650  -32.4350 C   0  0  0  0  0  0  0  0  0  0  0  0
   11.0620  -33.4360  -32.2080 C   0  0  0  0  0  0  0  0  0  0  0  0
    3.8850  -33.1800  -34.4130 C   0  0  0  0  0  0  0  0  0  0  0  0
    9.8110  -32.2920  -30.3300 C   0  0  0  0  0  0  0  0  0  0  0  0
    5.0920  -35.1000  -35.9770 C   0  0  0  0  0  0  0  0  0  0  0  0
    5.1800  -33.5590  -34.0300 C   0  0  0  0  0  0  0  0  0  0  0  0
   12.2160  -33.6210  -33.1280 C   0  0  0  0  0  0  0  0  0  0  0  0
  1 18  2  0
  1  9  1  0
  2 11  2  0
  3 11  1  0
  4 19  2  0
  5  6  1  0
  5 13  1  0
  7 17  2  0
  9 16  2  0
 12 17  1  0
 13  7  1  0
 13  8  2  0
 14 11  1  0
 14 15  1  0
 14  7  1  0
 15 20  1  0
 15 12  1  0
 16 19  1  0
 17 10  1  0
 18  4  1  0
 19  6  1  0
M  END
$$$$

     RDKit          3D

 20 21  0  0  0  0  0  0  0  0999 V2000
   12.2240  -32.5250  -28.1120 C   0  0  0  0  0  0  0  0  0  0  0  0
   10.6610  -35.3210  -34.4200 N   0  0  0  0  0  0  0  0  0  0  0  0
   11.3750  -31.7810  -29.1210 C   0  0  0  0  0  0  0  0  0  0  0  0
    9.1380  -36.1450  -35.9110 O   0  0  0  0  0  0  0  0  0  0  0  0
   10.5800  -32.6890  -30.0030 C   0  0  0  0  0  0  0  0  0  0  0  0
    8.1800  -34.8250  -34.2560 C   0  0  0  0  0  0  0  0  0  0  0  0
    3.7920  -33.5730  -33.1990 C   0  0  0  0  0  0  0  0  0  0  0  0
    6.1510  -33.7220  -33.9630 N   0  0  0  0  0  0  0  0  0  0  0  0
    8.3080  -33.9310  -33.0080 C   0  0  0  0  0  0  0  0  0  0  0  0
    9.3830  -35.4670  -34.8910 C   0  0  0  0  0  0  0  0  0  0  0  0
    4.7630  -33.3450  -34.3530 C   0  0  0  0  0  0  0  0  0  0  0  0
    5.9440  -35.4520  -35.6720 C   0  0  0  0  0  0  0  0  0  0  0  0
    2.1530  -31.8560  -32.2750 C   0  0  0  0  0  0  0  0  0  0  0  0
   11.0140  -33.9210  -30.3190 N   0  0  0  0  0  0  0  0  0  0  0  0
    3.1640  -32.2070  -32.8090 C   0  0  0  0  0  0  0  0  0  0  0  0
   10.2940  -34.3740  -31.3870 C   0  0  0  0  0  0  0  0  0  0  0  0
    6.7430  -34.7420  -34.6700 C   0  0  0  0  0  0  0  0  0  0  0  0
    7.0940  -33.2470  -33.0080 N   0  0  0  0  0  0  0  0  0  0  0  0
    9.1740  -32.2050  -30.7980 S   0  0  0  0  0  0  0  0  0  0  0  0
    9.2380  -33.6260  -31.8200 C   0  0  0  0  0  0  0  0  0  0  0  0
  3  1  1  0
  4 10  2  0
  5  3  1  0
  6  9  1  0
  7 15  1  0
  8 18  1  0
  9 18  1  0
  9 20  1  0
 10  2  1  0
 10  6  1  0
 11  8  1  0
 11  7  1  0
 12 17  1  0
 14  5  2  0
 15 13  2  0
 16 14  1  0
 17  6  2  0
 17  8  1  0
 19  5  1  0
 20 16  2  0
 20 19  1  0
M  END
$$$$

     RDKit          3D

 20 22  0  0  0  0  0  0  0  0999 V2000
   11.5630  -34.9280  -34.6970 C   0  0  0  0  0  0  0  0  0  0  0  0
    6.9490  -31.0390  -32.1940 O   0  0  0  0  0  0  0  0  0  0  0  0
    8.1160  -33.2020  -32.1650 C   0  0  0  0  0  0  0  0  0  0  0  0
   11.6310  -34.2160  -33.3840 N   0  0  0  0  0  0  0  0  0  0  0  0
    8.9980  -34.0010  -32.9500 C   0  0  0  0  0  0  0  0  0  0  0  0
    9.8860  -32.9610  -30.5830 C   0  0  0  0  0  0  0  0  0  0  0  0
    2.8990  -32.5990  -32.5910 C   0  0  0  0  0  0  0  0  0  0  0  0
    4.9520  -32.0750  -31.5240 C   0  0  0  0  0  0  0  0  0  0  0  0
    8.2820  -34.7400  -34.0050 C   0  0  0  0  0  0  0  0  0  0  0  0
   10.8040  -33.2270  -31.6130 C   0  0  0  0  0  0  0  0  0  0  0  0
    5.6110  -32.9380  -32.4370 C   0  0  0  0  0  0  0  0  0  0  0  0
    8.5100  -32.8640  -30.8300 C   0  0  0  0  0  0  0  0  0  0  0  0
   10.4650  -33.8260  -32.7500 C   0  0  0  0  0  0  0  0  0  0  0  0
    3.5720  -33.1040  -33.6050 C   0  0  0  0  0  0  0  0  0  0  0  0
   10.4230  -35.3980  -35.1820 C   0  0  0  0  0  0  0  0  0  0  0  0
   12.8350  -33.9270  -32.9440 O   0  0  0  0  0  0  0  0  0  0  0  0
    4.9340  -33.2430  -33.6600 C   0  0  0  0  0  0  0  0  0  0  0  0
    3.5580  -32.0270  -31.4930 C   0  0  0  0  0  0  0  0  0  0  0  0
    9.0560  -35.4420  -34.9270 C   0  0  0  0  0  0  0  0  0  0  0  0
    7.0260  -32.3630  -32.7820 C   0  0  0  0  0  0  0  0  0  0  0  0
  1  4  1  0
  3 20  1  0
  3 12  1  0
  4 16  1  0
  4 13  1  0
  5 13  2  0
  5  3  1  0
  7 18  1  0
  8 18  2  0
  9  5  1  0
 10  6  1  0
 11 20  1  0
 11  8  1  0
 12  6  1  0
 13 10  1  0
 14  7  2  0
 15 19  1  0
 15  1  2  0
 17 14  1  0
 17 11  1  0
 19  9  2  0
 20  2  1  0
M  END
$$$$
